/*--------------------------------*- C++ -*----------------------------------*\
| =========                 |                                                 |
| \\      /  F ield         | OpenFOAM: The Open Source CFD Toolbox           |
|  \\    /   O peration     | Version:  2506                                  |
|   \\  /    A nd           | Website:  www.openfoam.com                      |
|    \\/     M anipulation  |                                                 |
\*---------------------------------------------------------------------------*/
FoamFile
{
    version     2.0;
    format      ascii;
    arch        "LSB;label=32;scalar=64";
    class       polyBoundaryMesh;
    location    "constant/polyMesh";
    object      boundary;
}
// * * * * * * * * * * * * * * * * * * * * * * * * * * * * * * * * * * * * * //

5
(
    floor
    {
        type            wall;
        inGroups        1(wall);
        nFaces          200;
        startFace       79600;
    }
    ceiling
    {
        type            wall;
        inGroups        1(wall);
        nFaces          200;
        startFace       79800;
    }
    left
    {
        type            wall;
        inGroups        1(wall);
        nFaces          200;
        startFace       80000;
    }
    right
    {
        type            wall;
        inGroups        1(wall);
        nFaces          200;
        startFace       80200;
    }
    frontAndBack
    {
        type            empty;
        inGroups        1(empty);
        nFaces          80000;
        startFace       80400;
    }
)

// ************************************************************************* //
