/*--------------------------------*- C++ -*----------------------------------*\
  =========                 |
  \\      /  F ield         | OpenFOAM: The Open Source CFD Toolbox
   \\    /   O peration     | Website:  https://openfoam.org
    \\  /    A nd           | Version:  6
     \\/     M anipulation  |
\*---------------------------------------------------------------------------*/
FoamFile
{
    version     2.0;
    format      ascii;
    class       volScalarField;
    object      p_rgh;
}
// * * * * * * * * * * * * * * * * * * * * * * * * * * * * * * * * * * * * * //

dimensions      [0 2 -2 0 0 0 0];

internalField   uniform 0;

boundaryField
{
    floor
    {
        type            fixedFluxPressure;
        rho             rhok;
        value           $internalField;
    }

    ceiling
    {
        type            fixedFluxPressure;
        rho             rhok;
        value           $internalField;
    }

    left
    {
        type            fixedFluxPressure;
        rho             rhok;
        value           $internalField;
    }

    right
    {
        type            fixedFluxPressure;
        rho             rhok;
        value           $internalField;
    }

    #includeEtc "caseDicts/setConstraintTypes"
}

// ************************************************************************* //
